Version 4
SHEET 1 1416 840
WIRE 1328 -416 1328 -544
WIRE 1088 -272 976 -272
WIRE 1328 -272 1328 -336
WIRE 1328 -272 1168 -272
WIRE 976 -176 976 -272
WIRE 1088 -176 976 -176
WIRE 1328 -176 1168 -176
WIRE 976 -144 976 -176
WIRE 976 0 976 -64
WIRE 1088 0 976 0
WIRE 1328 0 1168 0
WIRE 976 80 976 0
WIRE 1088 80 976 80
WIRE 1264 80 1168 80
WIRE -80 96 -80 0
WIRE 272 112 272 96
WIRE 384 128 304 128
WIRE 240 144 -16 144
WIRE 464 160 304 160
WIRE 272 192 272 176
WIRE -80 240 -80 192
WIRE 320 240 -80 240
WIRE 352 240 320 240
WIRE 464 240 464 160
WIRE 464 240 432 240
WIRE -80 288 -80 240
WIRE -80 288 -160 288
WIRE 0 288 -80 288
WIRE 320 288 320 240
WIRE 352 288 320 288
WIRE -160 320 -160 288
WIRE 0 320 0 288
WIRE 320 336 320 288
WIRE 352 336 320 336
WIRE 464 336 464 240
WIRE 480 336 464 336
WIRE 576 336 560 336
WIRE 576 368 576 336
WIRE -160 448 -160 400
WIRE -160 448 -240 448
WIRE 0 448 0 400
WIRE 160 448 0 448
WIRE 272 448 240 448
WIRE 400 448 272 448
WIRE 480 448 400 448
WIRE -160 480 -160 448
WIRE 0 480 0 448
WIRE 272 480 272 448
WIRE 752 528 752 480
WIRE 752 528 720 528
WIRE 1024 528 1024 512
WIRE 400 544 400 448
WIRE 1152 544 1056 544
WIRE 1264 544 1264 80
WIRE 1264 544 1152 544
WIRE 272 560 272 544
WIRE 480 560 480 448
WIRE 576 560 480 560
WIRE 864 560 720 560
WIRE 928 560 864 560
WIRE 992 560 928 560
WIRE 1120 576 1056 576
WIRE 576 592 480 592
WIRE 752 592 720 592
WIRE 1264 592 1264 544
WIRE -160 608 -160 560
WIRE -80 608 -160 608
WIRE 0 608 0 560
WIRE 0 608 -80 608
WIRE 1024 608 1024 592
WIRE 1152 608 1152 544
WIRE -80 624 -80 608
WIRE 576 624 544 624
WIRE 752 624 752 592
WIRE 752 624 720 624
WIRE 832 624 752 624
WIRE -240 688 -240 448
WIRE 160 688 -240 688
WIRE 272 688 240 688
WIRE 400 688 400 608
WIRE 400 688 272 688
WIRE 480 688 480 592
WIRE 480 688 400 688
WIRE 544 688 544 624
WIRE 1152 704 1152 672
WIRE 1216 704 1152 704
WIRE 1264 704 1264 672
WIRE 1264 704 1216 704
WIRE 272 720 272 688
WIRE 928 720 928 560
WIRE 1120 720 1120 576
WIRE 1120 720 928 720
WIRE 1216 736 1216 704
WIRE 272 800 272 784
FLAG -80 624 0
FLAG 272 560 0
FLAG 272 800 0
FLAG 544 688 0
FLAG 752 480 +24V
FLAG 832 624 VOUT
FLAG 576 368 0
FLAG 272 192 +24V
FLAG 272 96 0
FLAG -80 0 +24V
FLAG 1024 512 0
FLAG 1024 608 +24V
FLAG 1328 -176 +RTD
FLAG 1328 0 -RTD
FLAG 1216 736 0
FLAG 1328 -544 0
FLAG 864 560 REF
FLAG 384 128 REF
SYMBOL npn -16 96 M0
SYMATTR InstName Q1
SYMATTR Value 2N3904
SYMBOL res -176 304 R0
SYMATTR InstName R1
SYMATTR Value 3k
SYMBOL res -16 304 R0
SYMATTR InstName R2
SYMATTR Value 3k
SYMBOL res -176 464 R0
SYMATTR InstName R3
SYMATTR Value 3k
SYMBOL res -16 464 R0
SYMATTR InstName R4
SYMATTR Value 3k
SYMBOL res 256 432 R90
WINDOW 0 0 56 VBottom 2
WINDOW 3 32 56 VTop 2
SYMATTR InstName R5
SYMATTR Value 10k
SYMBOL res 256 672 R90
WINDOW 0 0 56 VBottom 2
WINDOW 3 32 56 VTop 2
SYMATTR InstName R6
SYMATTR Value 10k
SYMBOL cap 256 480 R0
SYMATTR InstName C1
SYMATTR Value 100n
SYMBOL cap 256 720 R0
SYMATTR InstName C2
SYMATTR Value 100n
SYMBOL AutoGenerated\\AD8420 640 576 R0
SYMATTR InstName U1
SYMBOL cap 384 544 R0
SYMATTR InstName C3
SYMATTR Value 1µ
SYMBOL OpAmps\\ADA4096 272 208 R180
SYMATTR InstName U2
SYMBOL res 448 224 R90
WINDOW 0 -2 105 VBottom 2
WINDOW 3 -32 19 VTop 2
SYMATTR InstName R7
SYMATTR Value 29k
SYMBOL res 448 272 R90
WINDOW 0 4 105 VBottom 2
WINDOW 3 -14 15 VTop 2
SYMATTR InstName R8
SYMATTR Value 91k
SYMBOL res 448 320 R90
WINDOW 0 4 100 VBottom 2
WINDOW 3 -18 15 VTop 2
SYMATTR InstName R9
SYMATTR Value 140k
SYMBOL res 576 320 R90
WINDOW 0 0 56 VBottom 2
WINDOW 3 32 56 VTop 2
SYMATTR InstName R10
SYMATTR Value 10k
SYMBOL OpAmps\\ADA4096 1024 624 R180
WINDOW 3 -134 116 Left 2
SYMATTR InstName U3
SYMBOL current 1328 -416 R0
WINDOW 123 0 0 Left 0
WINDOW 39 0 0 Left 0
SYMATTR InstName I1
SYMATTR Value 500µ
SYMBOL res 1248 576 R0
SYMATTR InstName R11
SYMATTR Value 5.11k
SYMBOL res 960 -160 R0
SYMATTR InstName R12
SYMATTR Value 100
SYMBOL res 1072 -256 R270
WINDOW 0 32 56 VTop 2
WINDOW 3 0 56 VBottom 2
SYMATTR InstName R13
SYMATTR Value 1
SYMBOL res 1072 -160 R270
WINDOW 0 32 56 VTop 2
WINDOW 3 0 56 VBottom 2
SYMATTR InstName R14
SYMATTR Value 1
SYMBOL res 1072 96 R270
WINDOW 0 32 56 VTop 2
WINDOW 3 0 56 VBottom 2
SYMATTR InstName R16
SYMATTR Value 1
SYMBOL cap 1136 608 R0
SYMATTR InstName C4
SYMATTR Value 100n
SYMBOL res 1072 16 R270
WINDOW 0 32 56 VTop 2
WINDOW 3 0 56 VBottom 2
SYMATTR InstName R15
SYMATTR Value 1
TEXT -242 824 Left 2 !.tran 50m
