Version 4
SHEET 1 880 680
WIRE -144 -48 -144 -80
WIRE 688 0 688 -16
WIRE 448 32 448 0
WIRE 464 32 448 32
WIRE 560 32 528 32
WIRE 128 48 128 32
WIRE 160 48 128 48
WIRE 256 48 224 48
WIRE -432 80 -432 32
WIRE 560 80 560 32
WIRE 256 96 256 48
WIRE 688 112 688 80
WIRE -144 128 -144 32
WIRE 80 128 -144 128
WIRE 128 128 128 48
WIRE 208 144 160 144
WIRE 400 144 208 144
WIRE 448 144 448 32
WIRE -144 160 -144 128
WIRE 80 160 -32 160
WIRE 512 160 480 160
WIRE 624 160 592 160
WIRE 400 176 304 176
WIRE 128 192 128 160
WIRE -432 208 -432 160
WIRE 448 208 448 176
WIRE -32 240 -32 160
WIRE 208 240 208 144
WIRE 208 240 -32 240
WIRE 304 288 304 176
WIRE 384 288 304 288
WIRE 592 288 464 288
WIRE 688 288 688 208
WIRE 688 288 592 288
WIRE -144 304 -144 240
WIRE 304 352 304 288
WIRE 304 464 304 432
FLAG 128 192 0
FLAG -144 304 0
FLAG -144 -80 0
FLAG -432 32 +24V
FLAG -432 208 0
FLAG 128 32 +24V
FLAG 304 464 0
FLAG 592 288 VOUT
FLAG 688 -16 +24V
FLAG 448 208 0
FLAG 448 0 +24V
FLAG 256 96 0
FLAG 560 80 0
SYMBOL AutoGenerated\\LMX58_LM2904 80 144 R0
WINDOW 0 32 -32 Bottom 2
WINDOW 3 20 68 Top 2
SYMATTR InstName U1
SYMBOL AutoGenerated\\LMX58_LM2904 400 160 R0
WINDOW 0 -26 -27 Bottom 2
WINDOW 3 154 75 Top 2
SYMATTR InstName U2
SYMBOL res -160 144 R0
SYMATTR InstName R1
SYMATTR Value 5.11K
SYMATTR SpiceLine tol=1 pwr=0.1
SYMBOL current -144 -48 R0
WINDOW 123 0 0 Left 0
WINDOW 39 0 0 Left 0
SYMATTR InstName I1
SYMATTR Value 250µ
SYMBOL voltage -432 64 R0
WINDOW 123 0 0 Left 0
WINDOW 39 0 0 Left 0
SYMATTR InstName V1
SYMATTR Value 24
SYMBOL res 288 336 R0
SYMATTR InstName R2
SYMATTR Value 1K
SYMATTR SpiceLine tol=1 pwr=0.1
SYMBOL res 480 272 R90
WINDOW 0 0 56 VBottom 2
WINDOW 3 32 56 VTop 2
SYMATTR InstName R3
SYMATTR Value 6k8
SYMATTR SpiceLine tol=1 pwr=0.1
SYMBOL npn 624 112 R0
SYMATTR InstName Q1
SYMATTR Value 2N3904
SYMBOL res 608 144 R90
WINDOW 0 0 56 VBottom 2
WINDOW 3 32 56 VTop 2
SYMATTR InstName R4
SYMATTR Value 1k
SYMBOL res 672 -16 R0
SYMATTR InstName R5
SYMATTR Value 100
SYMBOL cap 224 32 R90
WINDOW 0 0 32 VBottom 2
WINDOW 3 32 32 VTop 2
SYMATTR InstName C1
SYMATTR Value 0.1µ
SYMATTR SpiceLine V=50 Irms=1.34 Rser=0.0989014 Lser=0 mfg="KEMET" pn="C0805C104K5RAC" type="X7R"
SYMBOL cap 528 16 R90
WINDOW 0 0 32 VBottom 2
WINDOW 3 32 32 VTop 2
SYMATTR InstName C2
SYMATTR Value 0.1µ
SYMATTR SpiceLine V=50 Irms=1.34 Rser=0.0989014 Lser=0 mfg="KEMET" pn="C0805C104K5RAC" type="X7R"
TEXT -466 488 Left 2 !.tran 10m
