Version 4
SHEET 1 1588 692
WIRE -704 -176 -816 -176
WIRE -288 -176 -704 -176
WIRE 32 -176 -288 -176
WIRE 320 -176 112 -176
WIRE 384 -176 320 -176
WIRE 640 -176 448 -176
WIRE 704 -176 640 -176
WIRE 912 -176 768 -176
WIRE 1008 -176 912 -176
WIRE 1088 -176 1008 -176
WIRE 1200 -176 1088 -176
WIRE 1328 -176 1200 -176
WIRE 1520 -176 1328 -176
WIRE -816 -128 -816 -176
WIRE -704 -128 -704 -176
WIRE 912 -128 912 -176
WIRE 1008 -128 1008 -176
WIRE 1088 -128 1088 -176
WIRE 1328 -128 1328 -176
WIRE 1520 -128 1520 -176
WIRE 640 -112 640 -176
WIRE 912 0 912 -64
WIRE 1008 0 1008 -64
WIRE 1088 0 1088 -64
WIRE 640 16 640 -32
WIRE 1328 16 1328 -64
WIRE 1440 16 1328 16
WIRE 1520 16 1520 -48
WIRE 1520 16 1440 16
WIRE -816 32 -816 -64
WIRE -704 32 -704 -64
WIRE -288 96 -288 -176
WIRE 1520 96 1520 16
WIRE 320 112 320 -176
WIRE -1104 160 -1152 160
WIRE -1008 160 -1104 160
WIRE -448 160 -1008 160
WIRE -1152 192 -1152 160
WIRE -1008 192 -1008 160
WIRE 272 192 -128 192
WIRE -448 224 -928 224
WIRE 1520 224 1520 176
WIRE -624 288 -784 288
WIRE -448 288 -624 288
WIRE -1152 304 -1152 256
WIRE 80 320 -128 320
WIRE 128 320 80 320
WIRE 320 320 320 208
WIRE 320 320 208 320
WIRE -448 352 -496 352
WIRE 80 368 80 320
WIRE 320 384 320 320
WIRE -624 400 -624 288
WIRE -784 416 -784 288
WIRE -1152 432 -1152 384
WIRE -1008 432 -1008 256
WIRE -1008 432 -1152 432
WIRE -928 432 -928 224
WIRE -928 432 -1008 432
WIRE -288 464 -288 416
WIRE 80 512 80 432
WIRE 320 512 320 464
WIRE 320 512 80 512
WIRE -624 528 -624 480
WIRE -496 528 -496 352
WIRE -496 528 -624 528
WIRE -624 560 -624 528
WIRE 320 560 320 512
WIRE -784 672 -784 480
WIRE -624 672 -624 624
FLAG 320 560 0
FLAG -816 32 0
FLAG -704 32 0
FLAG 1520 224 0
FLAG 1088 0 0
FLAG 1008 0 0
FLAG 912 0 0
FLAG 640 16 0
FLAG -288 464 0
FLAG -624 672 0
FLAG -784 672 0
FLAG -784 288 +5V_REF
FLAG 1200 -176 +5V_REF
FLAG -1104 160 FB
FLAG 1440 16 FB
SYMBOL nmos 272 112 R0
SYMATTR InstName M1
SYMATTR Value SI7454DP
SYMBOL PowerProducts\\LT1243 -288 256 R0
SYMATTR InstName U1
SYMBOL res 304 368 R0
SYMATTR InstName R1
SYMATTR Value 1.3
SYMBOL res 224 304 R90
WINDOW 0 0 56 VBottom 2
WINDOW 3 32 56 VTop 2
SYMATTR InstName R2
SYMATTR Value 1k37
SYMBOL cap 64 368 R0
SYMATTR InstName C1
SYMATTR Value 470n
SYMBOL ind 16 -160 R270
WINDOW 0 32 56 VTop 2
WINDOW 3 5 56 VBottom 2
SYMATTR InstName L1
SYMATTR Value 150µ
SYMBOL ind 624 -128 R0
SYMATTR InstName L2
SYMATTR Value 150µ
SYMBOL cap 384 -160 R270
WINDOW 0 32 32 VTop 2
WINDOW 3 0 32 VBottom 2
SYMATTR InstName C2
SYMATTR Value 22µ
SYMBOL diode 704 -160 R270
WINDOW 0 32 32 VTop 2
WINDOW 3 0 32 VBottom 2
SYMATTR InstName D1
SYMBOL cap 896 -128 R0
SYMATTR InstName C3
SYMATTR Value 22µ
SYMBOL cap 992 -128 R0
SYMATTR InstName C4
SYMATTR Value 22µ
SYMBOL cap 1072 -128 R0
SYMATTR InstName C5
SYMATTR Value 100µ
SYMBOL cap -720 -128 R0
SYMATTR InstName C6
SYMATTR Value 22µ
SYMBOL cap -832 -128 R0
SYMATTR InstName C7
SYMATTR Value 100µ
SYMBOL cap 1312 -128 R0
SYMATTR InstName C8
SYMATTR Value 10n
SYMBOL res 1504 -144 R0
SYMATTR InstName R3
SYMATTR Value 10k
SYMBOL res 1504 80 R0
SYMATTR InstName R4
SYMATTR Value 10k
SYMBOL cap -800 416 R0
SYMATTR InstName C9
SYMATTR Value 100n
SYMBOL res -640 384 R0
SYMATTR InstName R5
SYMATTR Value 24k3
SYMBOL cap -640 560 R0
SYMATTR InstName C10
SYMATTR Value 470p
SYMBOL cap -1168 192 R0
SYMATTR InstName C11
SYMATTR Value 1n
SYMBOL cap -1024 192 R0
SYMATTR InstName C12
SYMATTR Value 220p
SYMBOL res -1168 288 R0
SYMATTR InstName R6
SYMATTR Value 100k
