Version 4
SHEET 1 1864 712
WIRE -864 -176 -864 -240
WIRE -816 -176 -864 -176
WIRE -704 -176 -816 -176
WIRE -288 -176 -704 -176
WIRE -96 -176 -288 -176
WIRE 176 -176 0 -176
WIRE 240 -176 176 -176
WIRE 352 -176 304 -176
WIRE 464 -176 352 -176
WIRE 624 -176 528 -176
WIRE 720 -176 624 -176
WIRE 800 -176 720 -176
WIRE 1040 -176 800 -176
WIRE 1232 -176 1040 -176
WIRE 1408 -176 1232 -176
WIRE -816 -128 -816 -176
WIRE -704 -128 -704 -176
WIRE 624 -128 624 -176
WIRE 720 -128 720 -176
WIRE 800 -128 800 -176
WIRE 1040 -128 1040 -176
WIRE 1232 -128 1232 -176
WIRE 352 -112 352 -176
WIRE 1408 -48 1408 -176
WIRE -1760 -16 -1760 -64
WIRE 624 0 624 -64
WIRE 720 0 720 -64
WIRE 800 0 800 -64
WIRE 352 16 352 -16
WIRE 1040 16 1040 -64
WIRE 1152 16 1040 16
WIRE 1232 16 1232 -48
WIRE 1232 16 1152 16
WIRE -816 32 -816 -64
WIRE -704 32 -704 -64
WIRE -1760 96 -1760 64
WIRE -288 96 -288 -176
WIRE 1232 96 1232 16
WIRE 176 112 176 -176
WIRE 1408 112 1408 32
WIRE -1040 160 -1088 160
WIRE -944 160 -1040 160
WIRE -448 160 -944 160
WIRE -1088 192 -1088 160
WIRE -944 192 -944 160
WIRE 128 192 -128 192
WIRE -448 224 -800 224
WIRE 1232 224 1232 176
WIRE -624 288 -720 288
WIRE -448 288 -624 288
WIRE -1088 304 -1088 256
WIRE 0 320 -128 320
WIRE 48 320 0 320
WIRE 176 320 176 208
WIRE 176 320 128 320
WIRE -448 352 -496 352
WIRE 0 368 0 320
WIRE 176 384 176 320
WIRE -624 400 -624 288
WIRE -720 416 -720 288
WIRE -1088 432 -1088 384
WIRE -944 432 -944 256
WIRE -944 432 -1088 432
WIRE -800 432 -800 224
WIRE -800 432 -944 432
WIRE -288 464 -288 416
WIRE 0 512 0 432
WIRE 176 512 176 464
WIRE 176 512 0 512
WIRE -624 528 -624 480
WIRE -496 528 -496 352
WIRE -496 528 -624 528
WIRE -624 560 -624 528
WIRE 176 560 176 512
WIRE -720 672 -720 480
WIRE -624 672 -624 624
FLAG 176 560 0
FLAG -816 32 0
FLAG -704 32 0
FLAG 1232 224 0
FLAG 800 0 0
FLAG 720 0 0
FLAG 624 0 0
FLAG 352 16 0
FLAG -288 464 0
FLAG -624 672 0
FLAG -720 672 0
FLAG -1040 160 FB
FLAG 1152 16 FB
FLAG -1760 96 0
FLAG -864 -240 +12V
FLAG -1760 -64 +12V
FLAG 1232 -176 VOUT
FLAG 1408 112 0
SYMBOL nmos 128 112 R0
SYMATTR InstName M1
SYMATTR Value SI7454DP
SYMBOL PowerProducts\\LT1243 -288 256 R0
SYMATTR InstName U1
SYMBOL res 160 368 R0
SYMATTR InstName R1
SYMATTR Value 100m
SYMBOL res 144 304 R90
WINDOW 0 0 56 VBottom 2
WINDOW 3 32 56 VTop 2
SYMATTR InstName R2
SYMATTR Value 1.37K
SYMATTR SpiceLine tol=1 pwr=0.1
SYMBOL cap -16 368 R0
SYMATTR InstName C1
SYMATTR Value 470p
SYMATTR SpiceLine V=50 Irms=0 Rser=0 Lser=0 mfg="Murata" pn="GCM155R71H471JA37" type="X7R"
SYMBOL cap 240 -160 R270
WINDOW 0 32 32 VTop 2
WINDOW 3 0 32 VBottom 2
SYMATTR InstName C2
SYMATTR Value 22µ
SYMATTR SpiceLine V=25 Irms=0 Rser=0 Lser=0 mfg="Murata" pn="GRM32ER71E226KE15" type="X7R"
SYMBOL schottky 464 -160 R270
WINDOW 0 32 32 VTop 2
WINDOW 3 0 32 VBottom 2
SYMATTR InstName D1
SYMATTR Value MBR745
SYMATTR Description Diode
SYMATTR Type diode
SYMBOL cap 608 -128 R0
SYMATTR InstName C3
SYMATTR Value 10µ
SYMATTR SpiceLine V=25 Irms=0 Rser=0 Lser=0 mfg="Murata" pn="GRM188R61E106MA73" type="X5R"
SYMBOL cap 704 -128 R0
SYMATTR InstName C4
SYMATTR Value 10µ
SYMATTR SpiceLine V=25 Irms=0 Rser=0 Lser=0 mfg="Murata" pn="GRM188R61E106MA73" type="X5R"
SYMBOL polcap 784 -128 R0
WINDOW 3 24 56 Left 2
SYMATTR InstName C5
SYMATTR Value 100µ
SYMATTR Description Capacitor
SYMATTR Type cap
SYMATTR SpiceLine V=50 Irms=210m Rser=0.45 Lser=0 mfg="Nichicon" pn="UPR1H101MPH" type="Al electrolytic"
SYMBOL cap -720 -128 R0
SYMATTR InstName C6
SYMATTR Value 10µ
SYMATTR SpiceLine V=25 Irms=0 Rser=0 Lser=0 mfg="Murata" pn="GRM188R61E106KA73" type="X5R"
SYMBOL polcap -832 -128 R0
WINDOW 3 24 56 Left 2
SYMATTR InstName C7
SYMATTR Value 100µ
SYMATTR Description Capacitor
SYMATTR Type cap
SYMATTR SpiceLine V=50 Irms=370m Rser=0.4 Lser=0 mfg="Nichicon" pn="UPG1H101MPH" type="Al electrolytic"
SYMBOL cap 1024 -128 R0
SYMATTR InstName C8
SYMATTR Value 0.01µ
SYMATTR SpiceLine V=50 Irms=0 Rser=0 Lser=0 mfg="Murata" pn="GCM155R71H103KA55" type="X7R"
SYMBOL res 1216 -144 R0
SYMATTR InstName R3
SYMATTR Value 10K
SYMATTR SpiceLine tol=1 pwr=0.1
SYMBOL res 1216 80 R0
SYMATTR InstName R4
SYMATTR Value 10K
SYMATTR SpiceLine tol=1 pwr=0.1
SYMBOL cap -736 416 R0
SYMATTR InstName C9
SYMATTR Value 0.1µ
SYMATTR SpiceLine V=50 Irms=0 Rser=0 Lser=0 mfg="Murata" pn="GCM155R71H104KE02" type="X7R"
SYMBOL res -640 384 R0
SYMATTR InstName R5
SYMATTR Value 10k
SYMATTR SpiceLine tol=1 pwr=0.1
SYMBOL cap -640 560 R0
SYMATTR InstName C10
SYMATTR Value 470p
SYMATTR SpiceLine V=50 Irms=33.7m Rser=6.97891 Lser=0 mfg="KEMET" pn="C0402C471K5RAC" type="X7R"
SYMBOL cap -1104 192 R0
SYMATTR InstName C11
SYMATTR Value 0.001µ
SYMATTR SpiceLine V=50 Irms=0 Rser=0 Lser=0 mfg="Murata" pn="GRM1885C1H102JA01" type="C0G"
SYMBOL cap -960 192 R0
SYMATTR InstName C12
SYMATTR Value 220p
SYMATTR SpiceLine V=50 Irms=20.6m Rser=17.8189 Lser=0 mfg="KEMET" pn="C0603C221K5RAC" type="X7R"
SYMBOL res -1104 288 R0
SYMATTR InstName R6
SYMATTR Value 100K
SYMATTR SpiceLine tol=1 pwr=0.1
SYMBOL we\\Power_Magnetics\\WE-PD -48 -176 R0
SYMATTR SpiceModel 1210_7447709330_33u
SYMATTR InstName U2
SYMBOL we\\Power_Magnetics\\WE-PD 352 -64 R90
SYMATTR SpiceModel 1210_7447709330_33u
SYMATTR InstName U4
SYMBOL voltage -1760 -32 R0
WINDOW 123 0 0 Left 0
WINDOW 39 0 0 Left 0
SYMATTR InstName V1
SYMATTR Value 12
SYMBOL res 1392 -64 R0
SYMATTR InstName R7
SYMATTR Value 5
TEXT -1170 696 Left 2 !.tran 1m
