Version 4
SHEET 1 1744 680
WIRE 624 -640 624 -768
WIRE 432 -576 -128 -576
WIRE 576 -560 496 -560
WIRE 432 -544 -48 -544
WIRE -128 -480 -128 -576
WIRE -576 -464 -576 -512
WIRE -448 -464 -448 -512
WIRE -352 -464 -352 -512
WIRE 352 -464 352 -496
WIRE 96 -448 64 -448
WIRE 208 -448 176 -448
WIRE 208 -368 208 -448
WIRE 352 -368 352 -400
WIRE 352 -368 208 -368
WIRE 448 -368 352 -368
WIRE 624 -368 624 -544
WIRE 624 -368 528 -368
WIRE 624 -352 624 -368
WIRE 208 -336 208 -368
WIRE 208 -336 192 -336
WIRE 352 -336 352 -368
WIRE -48 -320 -48 -544
WIRE 64 -320 64 -448
WIRE 64 -320 -48 -320
WIRE 128 -320 64 -320
WIRE 208 -304 192 -304
WIRE 160 -256 160 -288
WIRE 208 -240 208 -304
WIRE 272 -240 272 -256
WIRE 272 -240 208 -240
WIRE 352 -240 352 -272
WIRE 352 -240 272 -240
WIRE 448 -240 352 -240
WIRE 624 -240 624 -272
WIRE 624 -240 528 -240
WIRE 272 -224 272 -240
WIRE 352 -208 352 -240
WIRE 272 -128 272 -144
WIRE 352 -128 352 -144
WIRE 608 -96 128 -96
WIRE 624 -96 624 -240
WIRE 624 -96 608 -96
WIRE 976 -96 624 -96
WIRE 1312 -96 976 -96
WIRE 976 96 976 -96
WIRE 1312 96 1312 -96
WIRE 128 112 128 -96
WIRE 608 112 608 -96
WIRE 928 176 864 176
WIRE 1264 176 1216 176
WIRE 80 192 -64 192
WIRE 560 192 432 192
WIRE -64 288 -64 192
WIRE 128 304 128 288
WIRE 432 304 432 192
WIRE 608 304 608 288
WIRE 976 304 976 272
WIRE 1312 304 1312 272
WIRE 864 432 864 176
WIRE 1216 544 1216 176
FLAG 352 -128 0
FLAG 352 -496 0
FLAG 272 -128 0
FLAG 160 -256 0
FLAG -576 -512 +5V
FLAG -448 -512 +12V
FLAG -352 -512 +28V
FLAG -576 -384 0
FLAG -448 -384 0
FLAG -352 -384 0
FLAG 624 -768 +28V
FLAG 160 -352 +12V
FLAG 272 -336 +5V
FLAG 128 304 0
FLAG 608 304 0
FLAG 976 304 0
FLAG 1312 304 0
FLAG -64 368 0
FLAG 432 384 0
FLAG 864 512 0
FLAG 1216 624 0
FLAG 464 -528 +12V
FLAG 464 -592 0
FLAG -128 -400 0
SYMBOL nmos 80 112 R0
SYMATTR InstName M1
SYMATTR Value BSC014N04LSI
SYMBOL nmos 560 112 R0
SYMATTR InstName M2
SYMATTR Value BSC014N04LSI
SYMBOL nmos 576 -640 R0
SYMATTR InstName M5
SYMATTR Value BSC014N04LSI
SYMBOL OpAmps\\OP213 160 -384 M0
SYMATTR InstName U1
SYMBOL res 608 -368 R0
SYMATTR InstName R1
SYMATTR Value 0.5
SYMBOL res 544 -256 R90
WINDOW 0 0 56 VBottom 2
WINDOW 3 32 56 VTop 2
SYMATTR InstName R2
SYMATTR Value 100
SYMBOL res 544 -384 R90
WINDOW 0 0 56 VBottom 2
WINDOW 3 32 56 VTop 2
SYMATTR InstName R3
SYMATTR Value 100
SYMBOL cap 336 -336 R0
SYMATTR InstName C1
SYMATTR Value 100p
SYMBOL cap 336 -464 R0
SYMATTR InstName C2
SYMATTR Value 10p
SYMBOL cap 336 -208 R0
SYMATTR InstName C3
SYMATTR Value 10p
SYMBOL res 256 -352 R0
SYMATTR InstName R4
SYMATTR Value 100k
SYMBOL res 256 -240 R0
SYMATTR InstName R5
SYMATTR Value 11k
SYMBOL res 192 -464 R90
WINDOW 0 0 56 VBottom 2
WINDOW 3 32 56 VTop 2
SYMATTR InstName R6
SYMATTR Value 10k
SYMBOL voltage -576 -480 R0
WINDOW 123 0 0 Left 0
WINDOW 39 0 0 Left 0
SYMATTR InstName V1
SYMATTR Value 5
SYMBOL voltage -448 -480 R0
WINDOW 123 0 0 Left 0
WINDOW 39 0 0 Left 0
SYMATTR InstName V2
SYMATTR Value 12
SYMBOL voltage -352 -480 R0
WINDOW 123 0 0 Left 0
WINDOW 39 0 0 Left 0
SYMATTR InstName V3
SYMATTR Value 28
SYMBOL res 112 192 R0
SYMATTR InstName R7
SYMATTR Value 1
SYMBOL res 592 192 R0
SYMATTR InstName R8
SYMATTR Value 0.3
SYMBOL res 960 176 R0
SYMATTR InstName R9
SYMATTR Value 1.3
SYMBOL res 1296 176 R0
SYMATTR InstName R10
SYMATTR Value 0.8
SYMBOL nmos 928 96 R0
SYMATTR InstName M3
SYMATTR Value BSC014N04LSI
SYMBOL nmos 1264 96 R0
SYMATTR InstName M4
SYMATTR Value BSC014N04LSI
SYMBOL voltage -64 272 R0
WINDOW 123 0 0 Left 0
WINDOW 39 0 0 Left 0
SYMATTR InstName V4
SYMATTR Value PWL(0 0 4.9m 0 5m 10 9.9m 10 10m 0)
SYMBOL voltage 432 288 R0
WINDOW 123 0 0 Left 0
WINDOW 39 0 0 Left 0
SYMATTR InstName V5
SYMATTR Value PWL(0 0 9.9m 0 10m 10 14.9m 10 15m 0)
SYMBOL voltage 864 416 R0
WINDOW 123 0 0 Left 0
WINDOW 39 0 0 Left 0
SYMATTR InstName V6
SYMATTR Value PWL(0 0 14.9m 0 15m 10 19.9m 10 20m 0)
SYMBOL voltage 1216 528 R0
WINDOW 123 0 0 Left 0
WINDOW 39 0 0 Left 0
SYMATTR InstName V7
SYMATTR Value PWL(0 0 19.9m 0 20m 10 24.9m 10 25m 0)
SYMBOL OpAmps\\OP213 464 -496 M180
SYMATTR InstName U2
SYMBOL voltage -128 -496 R0
WINDOW 123 0 0 Left 0
WINDOW 39 0 0 Left 0
SYMATTR InstName V8
SYMATTR Value 497m
TEXT -610 648 Left 2 !.tran 25m
