Version 4
SHEET 1 1352 1368
WIRE -2496 528 -2544 528
WIRE -2448 528 -2496 528
WIRE -2288 528 -2352 528
WIRE -2192 528 -2288 528
WIRE -2064 528 -2192 528
WIRE -1856 528 -2064 528
WIRE -1712 528 -1856 528
WIRE -1680 528 -1712 528
WIRE -1536 528 -1600 528
WIRE -1440 528 -1536 528
WIRE -1232 528 -1344 528
WIRE -1008 528 -1232 528
WIRE -864 528 -1008 528
WIRE -4336 544 -4464 544
WIRE -4224 544 -4336 544
WIRE -4096 544 -4224 544
WIRE -3952 544 -4016 544
WIRE -3664 544 -3760 544
WIRE -3568 544 -3664 544
WIRE -3456 544 -3568 544
WIRE -3360 544 -3456 544
WIRE -3184 544 -3296 544
WIRE -3008 544 -3184 544
WIRE -2832 544 -3008 544
WIRE -2736 544 -2832 544
WIRE -3456 560 -3456 544
WIRE -2064 560 -2064 528
WIRE -3184 576 -3184 544
WIRE -3008 576 -3008 544
WIRE -2736 624 -2736 544
WIRE -2544 624 -2544 528
WIRE -2288 624 -2288 528
WIRE -2192 624 -2192 528
WIRE -1360 624 -1360 576
WIRE -4336 640 -4336 544
WIRE -4224 640 -4224 544
WIRE -3952 640 -3952 544
WIRE -3760 640 -3760 544
WIRE -4464 656 -4464 544
WIRE -3664 656 -3664 544
WIRE -3568 656 -3568 544
WIRE -2496 656 -2496 528
WIRE -864 656 -864 528
WIRE -3184 672 -3184 640
WIRE -3184 672 -3248 672
WIRE -2832 672 -2832 544
WIRE -3456 688 -3456 624
WIRE -3344 688 -3456 688
WIRE -2064 704 -2064 640
WIRE -1984 704 -2064 704
WIRE -2368 720 -2368 576
WIRE -2288 720 -2288 688
WIRE -2288 720 -2368 720
WIRE -3184 736 -3184 672
WIRE -3008 736 -3008 640
WIRE -1712 736 -1712 528
WIRE -1536 736 -1536 528
WIRE -1360 736 -1360 704
WIRE -1232 736 -1232 528
WIRE -2368 752 -2368 720
WIRE -3456 768 -3456 688
WIRE -1008 784 -1008 528
WIRE -1856 816 -1856 528
WIRE -1792 816 -1856 816
WIRE -864 816 -864 736
WIRE -864 816 -1168 816
WIRE -4464 848 -4464 736
WIRE -4336 848 -4336 704
WIRE -4336 848 -4464 848
WIRE -4224 848 -4224 704
WIRE -4224 848 -4336 848
WIRE -4096 848 -4224 848
WIRE -3952 848 -3952 736
WIRE -3952 848 -4016 848
WIRE -3760 848 -3760 736
WIRE -3664 848 -3664 720
WIRE -3664 848 -3760 848
WIRE -3568 848 -3568 720
WIRE -3568 848 -3664 848
WIRE -3456 848 -3456 832
WIRE -3456 848 -3568 848
WIRE -3360 848 -3456 848
WIRE -3184 848 -3184 800
WIRE -3184 848 -3296 848
WIRE -3008 848 -3008 800
WIRE -3008 848 -3184 848
WIRE -2832 848 -2832 736
WIRE -2832 848 -3008 848
WIRE -2736 848 -2736 720
WIRE -2736 848 -2832 848
WIRE -2544 848 -2544 720
WIRE -2496 848 -2496 720
WIRE -2496 848 -2544 848
WIRE -2384 848 -2496 848
WIRE -2368 848 -2368 832
WIRE -2368 848 -2384 848
WIRE -2192 848 -2192 688
WIRE -2192 848 -2368 848
WIRE -2384 880 -2384 848
WIRE -1104 880 -1168 880
WIRE -1056 880 -1104 880
WIRE -4336 912 -4336 848
WIRE -1008 944 -1008 864
WIRE -1008 944 -1168 944
WIRE -1008 960 -1008 944
WIRE -1600 1056 -1600 1008
WIRE -1360 1056 -1360 1008
WIRE -1008 1072 -1008 1040
FLAG -1104 880 FLT
FLAG -1920 704 FLT
FLAG -1360 1120 0
FLAG -3344 688 0
FLAG -3248 672 0
FLAG -2384 880 GNDFIELD
FLAG -1600 1056 GNDFIELD
FLAG -1008 1072 GNDFIELD
FLAG -4336 912 0
SYMBOL cap -3584 656 R0
SYMATTR InstName C4
SYMATTR Value 0.001µ
SYMATTR SpiceLine V=250 Irms=0 Rser=0 Lser=0 mfg="Murata" pn="GCM31A5C2E102JX01" type="C0G"
SYMBOL cap -3472 560 R0
SYMATTR InstName C5
SYMATTR Value 33nf
SYMATTR SpiceLine V=630
SYMBOL cap -3472 768 R0
SYMATTR InstName C6
SYMATTR Value 33nF
SYMATTR SpiceLine V=630
SYMBOL FerriteBead -3328 544 R90
WINDOW 0 -16 0 VBottom 2
SYMATTR InstName L3
SYMATTR Prefix X
SYMATTR Value BLM21PG300SN1
SYMBOL FerriteBead -3328 848 R90
WINDOW 0 -16 0 VBottom 2
SYMATTR InstName L4
SYMATTR Prefix X
SYMATTR Value BLM21PG300SN1
SYMBOL cap -4240 640 R0
SYMATTR InstName C1
SYMATTR Value 0.001µ
SYMATTR SpiceLine V=250 Irms=0 Rser=0 Lser=0 mfg="Murata" pn="GCM31A5C2E102JX01" type="C0G"
SYMBOL cap -3200 576 R0
SYMATTR InstName C2
SYMATTR Value 0.01µ
SYMATTR SpiceLine V=1.5K Irms=184m Rser=0.360592 Lser=0 mfg="KEMET" pn="C1825C103KFRAC" type="X7R"
SYMBOL cap -3200 736 R0
SYMATTR InstName C8
SYMATTR Value 0.01µ
SYMATTR SpiceLine V=1.5K Irms=184m Rser=0.360592 Lser=0 mfg="KEMET" pn="C1825C103KFRAC" type="X7R"
SYMBOL TVSdiode -3024 576 R0
SYMATTR InstName D1
SYMATTR Value SMCJ33A
SYMBOL TVSdiode -3024 736 R0
SYMATTR InstName D2
SYMATTR Value 1.5SMC200CA
SYMATTR Prefix X
SYMBOL cap -2848 672 R0
SYMATTR InstName C9
SYMATTR Value 0.047µ
SYMATTR SpiceLine V=100 Irms=1.3 Rser=0.116668 Lser=0 mfg="KEMET" pn="C1210C473K1RAC" type="X7R"
SYMBOL cap -2512 656 R0
SYMATTR InstName C10
SYMATTR Value 0.047µ
SYMATTR SpiceLine V=50 Irms=1.3 Rser=0.116668 Lser=0 mfg="KEMET" pn="C1210C473K5RAC" type="X7R"
SYMBOL SpecialFunctions\\LT4356-1 -1488 896 R0
SYMATTR InstName U3
SYMBOL res -2384 736 R0
SYMATTR InstName R1
SYMATTR Value 100K
SYMATTR SpiceLine tol=1 pwr=0.1
SYMBOL zener -2304 688 M180
WINDOW 0 24 64 Left 2
WINDOW 3 72 116 VLeft 2
SYMATTR InstName D3
SYMATTR Value 1N750
SYMBOL cap -2208 624 R0
SYMATTR InstName C11
SYMATTR Value 1µ
SYMATTR SpiceLine V=100 Irms=5.63 Rser=0.0203188 Lser=0 mfg="KEMET" pn="C1210C105K1RAC" type="X7R"
SYMBOL res -2080 544 R0
SYMATTR InstName R2
SYMATTR Value 6.04K
SYMATTR SpiceLine tol=1 pwr=0.1
SYMBOL LED -1984 720 R270
WINDOW 0 72 32 VTop 2
WINDOW 3 0 32 VBottom 2
SYMATTR InstName D4
SYMATTR Value QTLP690C
SYMBOL res -1584 512 R90
WINDOW 0 0 56 VBottom 2
WINDOW 3 32 56 VTop 2
SYMATTR InstName R3
SYMATTR Value 10m
SYMBOL nmos -1440 576 R270
SYMATTR InstName M2
SYMATTR Value IPP034NE7N3
SYMBOL res -1376 608 R0
SYMATTR InstName R4
SYMATTR Value 33.2
SYMATTR SpiceLine tol=1 pwr=0.1
SYMBOL res -880 640 R0
SYMATTR InstName R5
SYMATTR Value 100K
SYMATTR SpiceLine tol=1 pwr=0.1
SYMBOL res -1024 944 R0
SYMATTR InstName R6
SYMATTR Value 6.04K
SYMATTR SpiceLine tol=1 pwr=0.1
SYMBOL res -1024 768 R0
SYMATTR InstName R7
SYMATTR Value 140K
SYMATTR SpiceLine tol=1 pwr=0.1
SYMBOL cap -1376 1056 R0
SYMATTR InstName C12
SYMATTR Value 2.2µ
SYMATTR SpiceLine V=10 Irms=0 Rser=0 Lser=0 mfg="Murata" pn="GRM155Z71A225KE01" type="X7R"
SYMBOL ISO16750-2 -4464 656 R0
WINDOW 0 -90 -17 Left 2
WINDOW 38 -357 53 Left 2
WINDOW 1 -185 19 Left 2
SYMATTR InstName U5
SYMATTR SpiceModel 4-6-3_24V_StartingProfile
SYMBOL we\\EMC_Components\\WE-CMBNiZn -3856 688 R0
WINDOW 38 -103 -170 Left 2
SYMATTR InstName U4
SYMBOL we\\EMC_Components\\WE-CMBNiZn -2640 672 R0
WINDOW 38 -123 214 Left 2
SYMATTR InstName U6
SYMBOL pmos -2448 576 R270
SYMATTR InstName M1
SYMATTR Value QS8M51_P
SYMBOL cap -4352 640 R0
WINDOW 3 -30 -74 VRight 2
SYMATTR InstName C3
SYMATTR Value KCM55TR72A106MH01
SYMATTR Prefix X
SYMBOL cap -3680 656 R0
WINDOW 3 -26 -90 VRight 2
SYMATTR InstName C7
SYMATTR Value KCM55TR72A106MH01
SYMATTR Prefix X
SYMBOL PulseElectronics\\PA4306.102NL -4032 560 R0
SYMATTR InstName U8
SYMBOL PulseElectronics\\PA4306.102NL -4032 864 R0
SYMATTR InstName U9
TEXT -4208 1328 Left 2 !.lib C:\\Users\\mustafa.ozkan\\Downloads\\BLM21PG300SN1.mod
TEXT -4200 1104 Left 2 !.tran 10m
TEXT -4208 1352 Left 2 !.lib C:\\Users\\mustafa.ozkan\\Downloads\\1.5SMC200CA.txt
TEXT -4208 1224 Left 2 !.lib C:\\Users\\mustafa.ozkan\\Documents\\LTspiceXVII\\lib\\sub\\WE-CMBNiZn.lib
TEXT -4208 1256 Left 2 !.lib C:\\Users\\mustafa.ozkan\\Documents\\LTspiceXVII\\lib\\sub\\Pulse_Inductors.lib
TEXT -4208 1184 Left 2 !.lib C:\\Users\\mustafa.ozkan\\Documents\\LTspiceXVII\\lib\\Murata\\MLCC\\Automotive\\KCM.lib
