Version 4
SHEET 1 1352 2200
WIRE -2336 528 -2384 528
WIRE -2144 528 -2336 528
WIRE -1968 528 -2144 528
WIRE -1824 528 -1968 528
WIRE -1440 528 -1824 528
WIRE -1232 528 -1344 528
WIRE -1072 528 -1232 528
WIRE -1008 528 -1072 528
WIRE -800 528 -1008 528
WIRE -656 528 -800 528
WIRE -1968 544 -1968 528
WIRE -2384 592 -2384 528
WIRE -2144 592 -2144 528
WIRE -1824 608 -1824 528
WIRE -1360 608 -1360 576
WIRE -1008 608 -1008 528
WIRE -1360 624 -1360 608
WIRE -800 624 -800 528
WIRE -656 624 -656 528
WIRE -1968 656 -1968 624
WIRE -1888 656 -1968 656
WIRE -1712 704 -1824 704
WIRE -1536 704 -1712 704
WIRE -1968 720 -1968 656
WIRE -2384 736 -2384 672
WIRE -1712 752 -1712 704
WIRE -1360 752 -1360 704
WIRE -800 752 -800 688
WIRE -1712 800 -1712 752
WIRE -1536 800 -1536 704
WIRE -1360 800 -1360 752
WIRE -1232 800 -1232 528
WIRE -1968 832 -1968 784
WIRE -656 880 -656 704
WIRE -1104 1008 -1168 1008
WIRE -1008 1008 -1008 688
WIRE -1008 1008 -1104 1008
WIRE -1008 1056 -1008 1008
WIRE -1360 1120 -1360 1072
WIRE -1600 1136 -1600 1072
WIRE -1360 1200 -1360 1184
WIRE -1008 1200 -1008 1136
FLAG -2384 736 0
FLAG -656 880 0
FLAG -1968 832 0
FLAG -1600 1136 0
FLAG -1360 1200 0
FLAG -1008 1200 0
FLAG -1072 528 OUT
FLAG -2336 528 IN
FLAG -1360 608 G
FLAG -1104 1008 FB
FLAG -1424 752 0
FLAG -800 752 0
FLAG -1776 752 0
FLAG -2144 656 0
SYMBOL SpecialFunctions\\LT4356-1 -1488 960 R0
SYMATTR InstName U3
SYMBOL res -1376 608 R0
SYMATTR InstName R4
SYMATTR Value 33
SYMATTR SpiceLine tol=1 pwr=0.1
SYMBOL res -1024 1040 R0
SYMATTR InstName R6
SYMATTR Value 6.04K
SYMATTR SpiceLine tol=1 pwr=0.1
SYMBOL res -1024 592 R0
SYMATTR InstName R7
SYMATTR Value 140K
SYMATTR SpiceLine tol=1 pwr=0.1
SYMBOL cap -1376 1120 R0
SYMATTR InstName C12
SYMATTR Value 10µ
SYMATTR SpiceLine V=100 Irms=0 Rser=0 Lser=0
SYMBOL zener -1952 784 R180
WINDOW 0 24 64 Left 2
WINDOW 3 -99 -4 Left 2
SYMATTR InstName D1
SYMATTR Value 1N5371B
SYMBOL npn -1888 608 R0
WINDOW 0 78 -11 Left 2
WINDOW 3 77 15 Left 2
SYMATTR InstName Q1
SYMATTR Value 2SCR372P
SYMBOL res -1984 528 R0
SYMATTR InstName R15
SYMATTR Value 49k9
SYMATTR SpiceLine tol=1 pwr=0.1
SYMBOL nmos -1440 576 R270
SYMATTR InstName M2
SYMATTR Value STN3N45K3
SYMBOL voltage -2384 576 R0
WINDOW 3 -315 196 Left 2
SYMATTR Value PWL(0 28 1m 28 2199u 28 2.2m 250 2270u 250 3.27m 100)
SYMATTR InstName V1
SYMBOL res -672 608 R0
WINDOW 3 36 68 Left 2
SYMATTR Value 120
SYMATTR InstName R1
SYMBOL cap -1360 736 R90
WINDOW 0 0 32 VBottom 2
WINDOW 3 32 32 VTop 2
SYMATTR InstName C1
SYMATTR Value 0.047µ
SYMBOL polcap -816 624 R0
WINDOW 3 24 56 Left 2
SYMATTR Value 100µ
SYMATTR InstName C2
SYMATTR Description Capacitor
SYMATTR Type cap
SYMATTR SpiceLine V=63 Irms=260m Rser=0.31 Lser=0 mfg="Nichicon" pn="UPR1J101MPH" type="Al electrolytic"
SYMBOL cap -1776 768 R270
WINDOW 0 32 32 VTop 2
WINDOW 3 0 32 VBottom 2
SYMATTR InstName C3
SYMATTR Value 0.1µ
SYMBOL cap -2160 592 R0
SYMATTR InstName C4
SYMATTR Value 2.2µ
SYMATTR SpiceLine V=100 Irms=5.73 Rser=0.0196416 Lser=0 mfg="KEMET" pn="C1210C225K1RAC" type="X7R"
TEXT -1928 1168 Left 2 !.tran 3.27m
TEXT -2168 112 Left 6 ;MIL-STD-1275D 250V to 100V Spikes
TEXT -2176 240 Left 2 ;We hold supply voltage nearly at 60V (MAX. 80V)
TEXT -2176 280 Left 2 ;While spike event surge stopper hold output voltage at 30V
TEXT -2176 312 Left 2 ;MAX current output for circuit 250mA(SOA of MOSFET)
