Version 4
SHEET 1 1724 724
WIRE -48 416 -80 416
WIRE 80 416 32 416
WIRE 224 416 80 416
WIRE 352 416 224 416
WIRE 640 416 544 416
WIRE 720 416 640 416
WIRE 800 416 720 416
WIRE 1152 416 992 416
WIRE 1248 416 1152 416
WIRE 1312 416 1248 416
WIRE 1440 416 1392 416
WIRE 1536 416 1440 416
WIRE -80 432 -80 416
WIRE 80 432 80 416
WIRE 224 432 224 416
WIRE 640 432 640 416
WIRE 720 432 720 416
WIRE 1152 432 1152 416
WIRE 1248 432 1248 416
WIRE 1440 432 1440 416
WIRE 1536 432 1536 416
WIRE 80 512 80 496
WIRE 80 512 -80 512
WIRE 224 512 224 496
WIRE 224 512 80 512
WIRE 352 512 224 512
WIRE 640 512 640 496
WIRE 640 512 544 512
WIRE 720 512 720 496
WIRE 720 512 640 512
WIRE 1152 512 1152 496
WIRE 1152 512 720 512
WIRE 1248 512 1248 496
WIRE 1248 512 1152 512
WIRE 1440 512 1440 496
WIRE 1440 512 1248 512
WIRE 1536 512 1440 512
WIRE -80 544 -80 512
FLAG -80 544 0
SYMBOL we\\Capacitors\\WCAP-ASLI 1472 432 R0
WINDOW 38 -110 108 Left 2
SYMATTR SpiceModel 10x10.5_865080757014_100u
SYMATTR InstName U4
SYMBOL voltage -80 416 R0
WINDOW 123 -118 58 Left 2
WINDOW 39 0 0 Left 0
WINDOW 0 -85 29 Left 2
SYMATTR Value2 AC 1 0
SYMATTR InstName V1
SYMATTR Value ""
SYMBOL res 1520 416 R0
SYMATTR InstName R1
SYMATTR Value 10
SYMBOL we\\EMC_Components\\WE-SL2 448 464 R0
SYMATTR InstName U1
SYMATTR SpiceModel 9260_744224_0.25m
SYMBOL cap 64 432 R0
SYMATTR InstName C1
SYMATTR Value 0.0047µ
SYMATTR SpiceLine V=100 Irms=171m Rser=0.702288 Lser=0 mfg="KEMET" pn="C1206C472K1RAC" type="X7R"
SYMBOL cap 208 432 R0
SYMATTR InstName C2
SYMATTR Value 0.022µ
SYMATTR SpiceLine V=100 Irms=452m Rser=0.210854 Lser=0 mfg="KEMET" pn="C1206F223K1RAC" type="X7R"
SYMBOL cap 624 432 R0
SYMATTR InstName C3
SYMATTR Value 2.2µ
SYMATTR SpiceLine V=100 Irms=5.73 Rser=0.0196416 Lser=0 mfg="KEMET" pn="C1210C225K1RAC" type="X7R"
SYMBOL cap 704 432 R0
SYMATTR InstName C4
SYMATTR Value 2.2µ
SYMATTR SpiceLine V=100 Irms=5.73 Rser=0.0196416 Lser=0 mfg="KEMET" pn="C1210C225K1RAC" type="X7R"
SYMBOL cap 1136 432 R0
SYMATTR InstName C5
SYMATTR Value 4.7µ
SYMATTR SpiceLine V=100 Irms=0 Rser=0 Lser=0 mfg="Murata" pn="GRM31CZ72A475KE11" type="X7R"
SYMBOL cap 1232 432 R0
SYMATTR InstName C6
SYMATTR Value 4.7µ
SYMATTR SpiceLine V=100 Irms=0 Rser=0 Lser=0 mfg="Murata" pn="GRM31CZ72A475ME11" type="X7R"
SYMBOL ind 1296 432 R270
WINDOW 0 32 56 VTop 2
WINDOW 3 5 56 VBottom 2
SYMATTR InstName L1
SYMATTR Value 2.2µ
SYMATTR SpiceLine Ipk=0.6 Rser=0.34 Rpar=0 Cpar=0 mfg="Murata" pn="LQM21PN2R2MC0"
SYMBOL res 48 400 R90
WINDOW 0 0 56 VBottom 2
WINDOW 3 32 56 VTop 2
SYMATTR InstName R2
SYMATTR Value 1
SYMBOL AutoGenerated\\BLM18PG330SH1 896 416 R0
SYMATTR InstName U2
TEXT -192 632 Left 2 !.ac dec 50 1000 500000000
